Version 4
SHEET 1 1408 680
WIRE -1696 -304 -1760 -304
WIRE -1504 -304 -1568 -304
WIRE -1312 -304 -1376 -304
WIRE -1760 -208 -1760 -304
WIRE -1568 -208 -1568 -304
WIRE -1376 -208 -1376 -304
WIRE -544 -64 -592 -64
WIRE -1760 -48 -1760 -128
WIRE -1568 -48 -1568 -128
WIRE -1376 -48 -1376 -128
WIRE -544 0 -544 -64
WIRE -592 16 -640 16
WIRE -928 64 -1024 64
WIRE -816 64 -848 64
WIRE -752 64 -816 64
WIRE -896 128 -928 128
WIRE -640 128 -640 16
WIRE -544 128 -544 96
WIRE -544 128 -640 128
WIRE -896 144 -896 128
WIRE -1120 160 -1152 160
WIRE -1024 160 -1024 64
WIRE -1024 160 -1040 160
WIRE -928 160 -1024 160
WIRE -816 176 -816 64
WIRE -816 176 -864 176
WIRE -768 176 -816 176
WIRE -544 176 -544 128
WIRE -544 176 -688 176
WIRE -480 176 -544 176
WIRE -928 192 -1008 192
WIRE -1152 240 -1152 160
WIRE -896 240 -896 208
WIRE -896 240 -928 240
WIRE -1008 288 -1008 192
WIRE -1152 384 -1152 320
FLAG -928 128 VDD
IOPIN -928 128 In
FLAG -928 240 VSS
IOPIN -928 240 In
FLAG -1008 288 0
FLAG -1568 -48 0
FLAG -1504 -304 VDD
IOPIN -1504 -304 Out
FLAG -1376 -48 0
FLAG -1312 -304 VSS
IOPIN -1312 -304 Out
FLAG -480 176 IN2
IOPIN -480 176 Out
FLAG -752 64 IN1
IOPIN -752 64 Out
FLAG -1152 384 0
FLAG -1760 -48 0
FLAG -1696 -304 VDD33
IOPIN -1696 -304 Out
FLAG -592 -64 VDD33
IOPIN -592 -64 In
FLAG -1152 160 vin
SYMBOL Opamps\\UniversalOpamp2 -896 176 R0
WINDOW 0 13 43 Left 2
SYMATTR InstName OP27
SYMATTR SpiceModel ""
SYMATTR Value2 ""
SYMATTR SpiceLine ""
SYMATTR SpiceLine2 ""
SYMATTR Value OP27
SYMBOL res -1024 144 R90
WINDOW 0 0 56 VBottom 2
WINDOW 3 32 56 VTop 2
SYMATTR InstName R1
SYMATTR Value {R1}
SYMBOL res -832 48 R90
WINDOW 0 0 56 VBottom 2
WINDOW 3 32 56 VTop 2
SYMATTR InstName R2
SYMATTR Value {R2}
SYMBOL res -672 160 R90
WINDOW 0 0 56 VBottom 2
WINDOW 3 32 56 VTop 2
SYMATTR InstName R3
SYMATTR Value {R3}
SYMBOL voltage -1568 -224 M0
WINDOW 123 24 124 Left 2
WINDOW 39 0 0 Left 2
SYMATTR InstName VDD
SYMATTR Value {VDD}
SYMBOL voltage -1376 -224 M0
WINDOW 123 24 124 Left 2
WINDOW 39 0 0 Left 2
SYMATTR InstName VSS
SYMATTR Value {VSS}
SYMBOL voltage -1152 224 M0
WINDOW 123 0 0 Left 0
WINDOW 39 0 0 Left 0
SYMATTR InstName Vtri
SYMATTR Value PULSE(-0.9 0 0 0.5m 0.5m 1e-10 1m 10)
SYMBOL voltage -1760 -224 M0
WINDOW 123 24 124 Left 2
WINDOW 39 0 0 Left 2
SYMATTR InstName VDD33
SYMATTR Value {VDD33}
SYMBOL pmos -592 96 M180
SYMATTR InstName MP1
SYMATTR Value BS250/PLP
SYMATTR Prefix X
TEXT -1104 -320 Left 2 !.inc elk.lib
TEXT -1104 -216 Left 2 !.param VDD=5.0 VSS=-3.3 VDD33=3.3
TEXT -1104 -104 Left 2 !.tran 2m
TEXT -1104 -184 Left 2 !.param R1=2.2k R2=10k R3=1k
TEXT -1096 -352 Left 2 ;BIBLIOTHEK
TEXT -1096 -248 Left 2 ;PARAMETER
TEXT -1096 -128 Left 2 ;ANALYSE
