Version 4
SHEET 1 880 680
WIRE 144 64 96 64
WIRE 192 64 144 64
WIRE 336 64 272 64
WIRE 400 64 336 64
WIRE 144 80 144 64
WIRE 336 80 336 64
WIRE 144 176 144 160
WIRE 336 176 336 144
WIRE 336 176 144 176
WIRE 144 192 144 176
FLAG 144 192 0
FLAG 96 64 IN1
IOPIN 96 64 In
FLAG 400 64 IN2
IOPIN 400 64 Out
SYMBOL res 176 80 R270
WINDOW 0 32 56 VTop 2
WINDOW 3 1 56 VBottom 2
SYMATTR InstName R1
SYMATTR Value {R1}
SYMBOL diode 320 80 R0
WINDOW 0 38 31 Left 2
SYMATTR InstName D1
SYMATTR Value 1N4148
SYMBOL voltage 144 64 R0
WINDOW 3 -323 96 Left 2
WINDOW 123 0 0 Left 0
WINDOW 39 0 0 Left 0
WINDOW 0 17 19 Left 2
SYMATTR Value PULSE(0 1 0 .5m .5m 0 1m)
SYMATTR InstName V1
TEXT -8 -48 Left 2 !.tran 2m
TEXT 168 -48 Left 2 !.lib elk.lib
TEXT 344 -48 Left 2 !.param R1=10
TEXT -8 -72 Left 2 ;Analyse
TEXT 168 -72 Left 2 ;Bibliothek
TEXT 344 -72 Left 2 ;Parameter
