Version 4
SHEET 1 880 680
WIRE 512 48 336 48
WIRE -288 80 -288 48
WIRE -192 80 -192 48
WIRE 176 96 176 80
WIRE 144 112 80 112
WIRE 288 128 208 128
WIRE 336 128 336 48
WIRE 336 128 288 128
WIRE -32 144 -64 144
WIRE 112 144 48 144
WIRE 144 144 112 144
WIRE 336 144 336 128
WIRE 512 144 512 128
WIRE 512 144 448 144
WIRE 592 144 512 144
WIRE 144 160 144 144
WIRE 512 160 512 144
WIRE 176 176 176 160
WIRE -288 192 -288 160
WIRE -240 192 -288 192
WIRE -192 192 -192 160
WIRE -192 192 -240 192
WIRE -64 192 -64 144
WIRE 448 208 448 144
WIRE -240 224 -240 192
WIRE 112 256 112 144
WIRE 208 256 112 256
WIRE 288 256 288 128
WIRE -64 288 -64 272
WIRE 80 288 80 112
WIRE 80 288 -64 288
WIRE 512 288 512 256
WIRE 512 288 80 288
WIRE 592 288 512 288
WIRE 592 304 592 288
FLAG 592 304 0
FLAG 176 176 +5
FLAG 176 80 -3.3
FLAG -240 224 0
FLAG -192 48 -3.3
FLAG -288 48 +5
FLAG 336 144 IN1
IOPIN 336 144 Out
FLAG 592 144 IN2
IOPIN 592 144 Out
SYMBOL Opamps\\opamp2 176 192 M180
WINDOW 3 -65 64 Left 2
SYMATTR Value OP484
SYMATTR InstName U1
SYMBOL res 304 240 R90
WINDOW 0 0 56 VBottom 2
WINDOW 3 24 59 VTop 2
SYMATTR InstName R2
SYMATTR Value {R2}
SYMBOL res 496 32 R0
SYMATTR InstName R3
SYMATTR Value {R3}
SYMBOL npn 448 160 R0
SYMATTR InstName Q1
SYMATTR Value 2n3904
SYMBOL voltage -192 64 R0
WINDOW 123 0 0 Left 0
WINDOW 39 0 0 Left 0
SYMATTR InstName V1
SYMATTR Value -3.3
SYMBOL voltage -288 64 R0
WINDOW 123 0 0 Left 0
WINDOW 39 0 0 Left 0
SYMATTR InstName V2
SYMATTR Value 5
SYMBOL voltage -64 176 R0
WINDOW 3 -202 96 Left 2
WINDOW 123 0 0 Left 0
WINDOW 39 0 0 Left 0
WINDOW 0 35 55 Left 2
SYMATTR Value PULSE(0.68 -0.92 0 .5m .5m 0 1m)
SYMATTR InstName OUT1
SYMBOL res 64 128 R90
WINDOW 0 0 56 VBottom 2
WINDOW 3 32 56 VTop 2
SYMATTR InstName R1
SYMATTR Value {R1}
TEXT -152 352 Left 2 ;OUT1 amplification circuit
TEXT 400 352 Left 2 ;Measured/Testing circuit
TEXT -192 -56 Left 2 !.tran 2m
TEXT -16 -56 Left 2 !.lib elk.lib
TEXT 160 -56 Left 2 !.param R1=2.2k R2=10k R3=1k
TEXT -192 -80 Left 2 ;Analyse
TEXT -16 -80 Left 2 ;Bibliothek
TEXT 160 -80 Left 2 ;Parameter
RECTANGLE Normal 368 336 -336 0 1
RECTANGLE Normal 672 336 416 0 1
